Version 4
SHEET 1 880 680
WIRE 592 -96 -144 -96
WIRE -144 -64 -144 -96
WIRE -144 80 -144 16
WIRE 48 80 -144 80
WIRE 400 80 272 80
WIRE -144 160 -144 80
WIRE 48 160 -32 160
WIRE 336 160 272 160
WIRE 592 160 592 -96
WIRE 592 160 336 160
WIRE 336 192 336 160
WIRE 48 240 16 240
WIRE 304 240 272 240
WIRE 592 240 592 160
WIRE 16 288 16 240
WIRE 304 304 304 240
WIRE 336 304 336 272
WIRE 336 304 304 304
WIRE 336 336 336 304
WIRE -144 448 -144 240
WIRE -32 448 -32 160
WIRE -32 448 -144 448
WIRE 16 448 16 368
WIRE 16 448 -32 448
WIRE 336 448 336 416
WIRE 336 448 16 448
WIRE 592 448 592 320
WIRE 592 448 336 448
WIRE 336 496 336 448
FLAG 336 496 0
FLAG 400 80 Fout
SYMBOL SpecialFunctions\\LTC6992-1 160 160 R0
SYMATTR InstName U1
SYMBOL res 320 176 R0
SYMATTR InstName R1
SYMATTR Value 10k
SYMBOL res 320 320 R0
SYMATTR InstName R2
SYMATTR Value 6.81k
SYMBOL voltage 592 224 R0
WINDOW 123 0 0 Left 2
WINDOW 39 0 0 Left 2
SYMATTR InstName V1
SYMATTR Value 3.3
SYMBOL res 0 272 R0
SYMATTR InstName R3
SYMATTR Value 122k
SYMBOL res -160 -80 R0
SYMATTR InstName R4
SYMATTR Value 12.5k
SYMBOL res -160 144 R0
SYMATTR InstName R5
SYMATTR Value 2.5k
TEXT -162 520 Left 2 !.tran 100m
